Version 4
SHEET 1 880 680
WIRE -704 -80 -768 -80
WIRE -704 -64 -704 -80
WIRE -768 96 -768 -80
WIRE -448 144 -544 144
WIRE -288 144 -448 144
WIRE -96 144 -288 144
WIRE -64 144 -96 144
WIRE -16 144 -48 144
WIRE -928 176 -992 176
WIRE -544 208 -544 144
WIRE -544 208 -608 208
WIRE -288 208 -288 144
WIRE -1072 240 -1104 240
WIRE -928 240 -992 240
WIRE -448 240 -448 224
WIRE -448 240 -576 240
WIRE -16 240 -16 144
WIRE 16 240 -16 240
WIRE -448 256 -448 240
WIRE -1104 272 -1104 240
WIRE -544 272 -608 272
WIRE -928 304 -992 304
WIRE -576 336 -576 240
WIRE -576 336 -608 336
WIRE -544 336 -544 272
WIRE -448 336 -544 336
WIRE -288 336 -288 272
WIRE -288 336 -448 336
WIRE -96 336 -288 336
WIRE -64 336 -96 336
WIRE -16 336 -16 240
WIRE -16 336 -48 336
WIRE -768 416 -768 384
WIRE -576 416 -576 336
FLAG -768 416 0
FLAG -1104 272 0
FLAG -704 16 0
FLAG -992 176 RXD
IOPIN -992 176 Out
FLAG -992 304 TXD
IOPIN -992 304 In
FLAG 16 240 CAN[0:1]
IOPIN 16 240 BiDir
FLAG -96 336 CAN[0]
FLAG -96 144 CAN[1]
FLAG -576 480 0
BUSTAP -64 336 -48 336
BUSTAP -64 144 -48 144
SYMBOL res -464 128 R0
WINDOW 3 -66 -79 Left 2
SYMATTR InstName R1
SYMATTR Value {if(term, Z0/2, 1/Gmin)}
SYMBOL res -464 240 R0
WINDOW 3 -7 159 Left 2
SYMATTR InstName R2
SYMATTR Value {if(term, Z0/2, 1/Gmin)}
SYMBOL voltage -704 -80 R0
WINDOW 123 0 0 Left 0
WINDOW 39 0 0 Left 0
SYMATTR InstName V1
SYMATTR Value {Vcc}
SYMBOL SpecialFunctions\\LTC2875 -768 240 R0
SYMATTR InstName U1
SYMBOL res -976 224 R90
WINDOW 0 0 56 VBottom 2
WINDOW 3 32 56 VTop 2
SYMATTR InstName R3
SYMATTR Value {RS}
SYMBOL cap -560 480 R180
WINDOW 0 24 56 Left 2
WINDOW 3 24 8 Left 2
SYMATTR InstName C1
SYMATTR Value 5n
SYMBOL cap -304 208 R0
SYMATTR InstName C2
SYMATTR Value 100p
TEXT -952 -176 Left 2 !.param RS=1k Z0=100 term=0 Vcc=5
