Version 4
SHEET 1 2236 1252
WIRE 1168 -64 1072 -64
WIRE 464 -48 368 -48
WIRE 832 -48 688 -48
WIRE 880 -48 832 -48
WIRE 1120 -32 1072 -32
WIRE 1168 -32 1168 -64
WIRE -400 160 -448 160
WIRE 1168 160 1072 160
WIRE 1264 160 1168 160
WIRE -80 176 -208 176
WIRE 16 176 -80 176
WIRE 352 176 240 176
WIRE 368 176 368 -48
WIRE 368 176 352 176
WIRE 464 176 368 176
WIRE 832 176 688 176
WIRE 880 176 832 176
WIRE -528 192 -624 192
WIRE -400 192 -528 192
WIRE 1120 192 1072 192
WIRE -624 240 -624 192
WIRE 1568 576 1456 576
WIRE 1664 576 1568 576
WIRE 368 592 368 176
WIRE 464 592 368 592
WIRE 784 592 688 592
WIRE 832 592 784 592
WIRE 880 592 832 592
WIRE 1184 592 1104 592
WIRE 1264 592 1184 592
WIRE 1520 608 1456 608
WIRE 1664 864 1456 864
WIRE 784 880 784 592
WIRE 880 880 784 880
WIRE 1184 880 1104 880
WIRE 1264 880 1184 880
WIRE 1520 896 1456 896
WIRE 1664 896 1664 864
WIRE 1664 1120 1456 1120
WIRE 784 1136 784 880
WIRE 880 1136 784 1136
WIRE 1184 1136 1104 1136
WIRE 1264 1136 1184 1136
WIRE 1520 1152 1456 1152
WIRE 1664 1152 1664 1120
FLAG -624 320 0
FLAG 1664 656 0
FLAG -80 176 A[0:1]
FLAG 832 176 B[0:1]
FLAG -528 192 TXA
FLAG -448 160 RXA
FLAG 1120 192 RXB
FLAG 1168 160 TXB
FLAG 352 176 C[0:1]
FLAG 832 592 D[0:1]
FLAG 1520 608 RXF
FLAG 1264 240 0
FLAG 832 -48 E[0:1]
FLAG 1120 -32 RXE
FLAG 1168 48 0
FLAG 1184 592 F[0:1]
FLAG 1520 896 RXG
FLAG 1664 976 0
FLAG 1184 880 G[0:1]
FLAG 1520 1152 RXH
FLAG 1664 1232 0
FLAG 1184 1136 H[0:1]
FLAG 1568 576 TXF
SYMBOL bus_line 128 176 R0
WINDOW 39 5 66 Bottom 2
SYMATTR InstName X1
SYMATTR SpiceLine Z0={Z0} L={3}
SYMBOL bus_tap -336 176 R0
WINDOW 39 37 89 Bottom 2
SYMATTR InstName X2
SYMATTR SpiceLine Z0={Z1} RS={RS} Vcc={Vcc} term=1
SYMBOL bus_tap 1008 176 R180
WINDOW 39 37 89 Bottom 2
SYMATTR InstName X3
SYMATTR SpiceLine Z0={Z1} RS={RS} Vcc={Vcc} term={term}
SYMBOL voltage -624 224 R0
WINDOW 123 0 0 Left 0
WINDOW 39 0 0 Left 0
SYMATTR InstName V1
SYMATTR Value PULSE(5 0 1u 10n 10n .5u 1u 2)
SYMBOL voltage 1664 560 R0
SYMATTR InstName V2
SYMATTR Value PULSE(5 0 4u 10n 10n .5u 1u 2)
SYMBOL bus_line 576 176 R0
WINDOW 39 5 66 Bottom 2
SYMATTR InstName X4
SYMATTR SpiceLine Z0={Z0} L={3}
SYMBOL bus_tap 1392 592 R180
WINDOW 39 37 89 Bottom 2
SYMATTR InstName X5
SYMATTR SpiceLine Z0={Z1} RS={RS} Vcc={Vcc} term=1
SYMBOL bus_line 576 592 R0
WINDOW 39 5 66 Bottom 2
SYMATTR InstName X6
SYMATTR SpiceLine Z0={Z0} L={7}
SYMBOL voltage 1264 144 R0
SYMATTR InstName V3
SYMATTR Value 5
SYMBOL bus_tap 1008 -48 R180
WINDOW 39 37 89 Bottom 2
SYMATTR InstName X7
SYMATTR SpiceLine Z0={Z1} RS={RS} Vcc={Vcc} term={term}
SYMBOL bus_line 576 -48 R0
WINDOW 39 5 66 Bottom 2
SYMATTR InstName X8
SYMATTR SpiceLine Z0={Z0} L={3}
SYMBOL voltage 1168 -48 R0
SYMATTR InstName V4
SYMATTR Value 5
SYMBOL bus_line 992 592 R0
WINDOW 39 5 66 Bottom 2
SYMATTR InstName X9
SYMATTR SpiceLine Z0={Z0} L={6}
SYMBOL bus_tap 1392 880 R180
WINDOW 39 37 89 Bottom 2
SYMATTR InstName X10
SYMATTR SpiceLine Z0={Z1} RS={RS} Vcc={Vcc} term={term}
SYMBOL voltage 1664 880 R0
SYMATTR InstName V5
SYMATTR Value 5
SYMBOL bus_line 992 880 R0
WINDOW 39 5 66 Bottom 2
SYMATTR InstName X11
SYMATTR SpiceLine Z0={Z0} L={2}
SYMBOL bus_tap 1392 1136 R180
WINDOW 39 37 89 Bottom 2
SYMATTR InstName X12
SYMATTR SpiceLine Z0={Z1} RS={RS} Vcc={Vcc} term={term}
SYMBOL voltage 1664 1136 R0
SYMATTR InstName V6
SYMATTR Value 5
SYMBOL bus_line 992 1136 R0
WINDOW 39 5 66 Bottom 2
SYMATTR InstName X13
SYMATTR SpiceLine Z0={Z0} L={2}
SYMBOL bus_term 640 880 R0
WINDOW 39 -11 77 Bottom 2
SYMATTR InstName X14
SYMATTR SpiceLine R={Z1}
SYMBOL bus_term 224 592 R0
WINDOW 39 -11 77 Bottom 2
SYMATTR InstName X15
SYMATTR SpiceLine R={Z1}
TEXT -24 -128 Left 2 !.param Z0=100 RS=5k Vcc=5 Z1=100 term=0
TEXT -16 -72 Left 2 !.tran 7u
