Version 4
SHEET 1 2236 1508
WIRE -992 992 -1104 992
WIRE -1104 1136 -1104 992
WIRE -1104 1136 -1216 1136
WIRE -992 1136 -1104 1136
WIRE -1216 1168 -1216 1136
WIRE -992 1168 -992 1136
WIRE -1392 1216 -1456 1216
WIRE -1280 1216 -1312 1216
WIRE -896 1216 -928 1216
WIRE -752 1216 -816 1216
WIRE -2528 1328 -2576 1328
WIRE -1488 1328 -1520 1328
WIRE -1392 1328 -1488 1328
WIRE -1216 1328 -1216 1264
WIRE -1216 1328 -1312 1328
WIRE -992 1328 -992 1264
WIRE -896 1328 -992 1328
WIRE -720 1328 -816 1328
WIRE -688 1328 -720 1328
WIRE 432 1328 320 1328
WIRE 528 1328 432 1328
WIRE -2208 1344 -2336 1344
WIRE -2112 1344 -2208 1344
WIRE -1792 1344 -1888 1344
WIRE -1712 1344 -1792 1344
WIRE -368 1344 -496 1344
WIRE -272 1344 -368 1344
WIRE 48 1344 -48 1344
WIRE 128 1344 48 1344
WIRE -2656 1360 -2752 1360
WIRE -2528 1360 -2656 1360
WIRE -1488 1360 -1520 1360
WIRE -1456 1360 -1456 1216
WIRE -1456 1360 -1488 1360
WIRE -752 1360 -752 1216
WIRE -720 1360 -752 1360
WIRE -688 1360 -720 1360
WIRE 384 1360 320 1360
WIRE -1456 1392 -1456 1360
WIRE -1216 1392 -992 1328
WIRE -1216 1392 -1456 1392
WIRE -992 1392 -1216 1328
WIRE -752 1392 -752 1360
WIRE -752 1392 -992 1392
WIRE -2752 1408 -2752 1360
FLAG -992 1072 0
FLAG -2752 1488 0
FLAG -2208 1344 A[0:1]
FLAG -2656 1360 TXA
FLAG -2576 1328 RXA
FLAG -1792 1344 B[0:1]
FLAG -368 1344 C[0:1]
FLAG 48 1344 D[0:1]
FLAG 528 1408 0
FLAG 384 1360 RXB
FLAG 432 1328 TXB
FLAG -720 1328 RXB1
FLAG -720 1360 TXB1
FLAG -1488 1360 TXA1
FLAG -1488 1328 RXA1
SYMBOL pnp -928 1264 R180
SYMATTR InstName Q1
SYMATTR Value 2N3906
SYMBOL pnp -1280 1264 M180
SYMATTR InstName Q2
SYMATTR Value 2N3906
SYMBOL res -1296 1200 R90
WINDOW 0 0 56 VBottom 2
WINDOW 3 32 56 VTop 2
SYMATTR InstName R1
SYMATTR Value {Rbase}
SYMBOL res -800 1200 R90
WINDOW 0 0 56 VBottom 2
WINDOW 3 32 56 VTop 2
SYMATTR InstName R2
SYMATTR Value {Rbase}
SYMBOL res -1296 1312 R90
WINDOW 0 0 56 VBottom 2
WINDOW 3 32 56 VTop 2
SYMATTR InstName R3
SYMATTR Value {Rcol}
SYMBOL res -800 1312 R90
WINDOW 0 0 56 VBottom 2
WINDOW 3 32 56 VTop 2
SYMATTR InstName R4
SYMATTR Value {Rcol}
SYMBOL bus_tap -624 1344 R0
WINDOW 39 37 89 Bottom 2
SYMATTR SpiceLine Z0={Z1} RS={RS} Vcc={Vcc} term=1
SYMATTR InstName X16
SYMBOL bus_tap -1584 1344 M0
WINDOW 39 37 89 Bottom 2
SYMATTR SpiceLine Z0={Z1} RS={RS} Vcc={Vcc} term=1
SYMATTR InstName X17
SYMBOL voltage -992 976 R0
WINDOW 123 0 0 Left 0
WINDOW 39 0 0 Left 0
SYMATTR InstName V7
SYMATTR Value {Vcc}
SYMBOL bus_line -2000 1344 R0
WINDOW 39 5 66 Bottom 2
SYMATTR SpiceLine Z0={Z0} L={3}
SYMATTR InstName X18
SYMBOL bus_tap -2464 1344 R0
WINDOW 39 37 89 Bottom 2
SYMATTR SpiceLine Z0={Z0} RS={RS} Vcc={Vcc} term=1
SYMATTR InstName X19
SYMBOL voltage -2752 1392 R0
WINDOW 123 0 0 Left 0
WINDOW 39 0 0 Left 0
SYMATTR InstName V8
SYMATTR Value PULSE(5 0 1u 10n 10n .5u 1u 2)
SYMBOL bus_line -160 1344 R0
WINDOW 39 5 66 Bottom 2
SYMATTR SpiceLine Z0={Z0} L={3}
SYMATTR InstName X20
SYMBOL voltage 528 1312 R0
SYMATTR InstName V9
SYMATTR Value PULSE(5 0 4u 10n 10n .5u 1u 2)
SYMBOL bus_tap 256 1344 R180
WINDOW 39 37 89 Bottom 2
SYMATTR SpiceLine Z0={Z1} RS={RS} Vcc={Vcc} term=1
SYMATTR InstName X21
TEXT -2000 792 Left 2 !.param Z0=100 RS=5k Vcc=5 Z1=100 term=0 Rbase=3.3k Rcol=470
TEXT -1488 952 Left 2 !.tran 7u
