Version 4
SHEET 1 2236 1740
WIRE -512 1200 -720 1200
WIRE 80 1200 -512 1200
WIRE 160 1200 144 1200
WIRE 80 1232 -160 1232
WIRE 96 1264 96 1248
WIRE -512 1296 -512 1200
WIRE -432 1296 -512 1296
WIRE -240 1296 -272 1296
WIRE -160 1296 -160 1232
WIRE -160 1296 -240 1296
WIRE -720 1312 -720 1200
WIRE -720 1312 -944 1312
WIRE -688 1312 -720 1312
WIRE -2528 1328 -2576 1328
WIRE -1488 1328 -1520 1328
WIRE -2208 1344 -2336 1344
WIRE -2112 1344 -2208 1344
WIRE -1792 1344 -1888 1344
WIRE -1712 1344 -1792 1344
WIRE -720 1344 -896 1344
WIRE -688 1344 -720 1344
WIRE -544 1344 -624 1344
WIRE -432 1344 -544 1344
WIRE -240 1344 -256 1344
WIRE -64 1344 -240 1344
WIRE -2656 1360 -2752 1360
WIRE -2528 1360 -2656 1360
WIRE -1488 1360 -1520 1360
WIRE -672 1376 -672 1360
WIRE -64 1376 -64 1344
WIRE 80 1376 -64 1376
WIRE 160 1376 144 1376
WIRE -2752 1408 -2752 1360
WIRE -896 1408 -896 1344
WIRE -896 1408 -944 1408
WIRE -432 1408 -432 1392
WIRE 80 1408 -96 1408
WIRE 96 1440 96 1424
WIRE -720 1488 -720 1344
WIRE -96 1488 -96 1408
WIRE -96 1488 -720 1488
WIRE -2720 1632 -2752 1632
WIRE -1600 1632 -1712 1632
WIRE -1504 1632 -1600 1632
WIRE -2400 1648 -2528 1648
WIRE -2304 1648 -2400 1648
WIRE -1984 1648 -2080 1648
WIRE -1904 1648 -1984 1648
WIRE -2720 1664 -2752 1664
WIRE -1648 1664 -1712 1664
FLAG -2752 1488 0
FLAG -2208 1344 A[0:1]
FLAG -2656 1360 TXA
FLAG -2576 1328 RXA
FLAG -1792 1344 B[0:1]
FLAG -2400 1648 C[0:1]
FLAG -1984 1648 D[0:1]
FLAG -1504 1712 0
FLAG -1648 1664 RXB
FLAG -1600 1632 TXB
FLAG -2752 1632 RXB1
FLAG -2752 1664 TXB1
FLAG -1488 1360 TXA1
FLAG -1488 1328 RXA1
FLAG -432 1408 0
FLAG -544 1344 CLK
FLAG 96 1264 0
FLAG -944 1408 RXB1
FLAG 160 1200 TXB1
FLAG -944 1312 RXA1
FLAG 160 1376 TXA1
FLAG -672 1376 0
FLAG 96 1440 0
FLAG -240 1296 Q
FLAG -240 1344 _Q
SYMBOL bus_tap -2656 1648 R0
WINDOW 39 37 89 Bottom 2
SYMATTR SpiceLine Z0={Z1} RS={RS} Vcc={Vcc} term=1
SYMATTR InstName X16
SYMBOL bus_tap -1584 1344 M0
WINDOW 39 37 89 Bottom 2
SYMATTR SpiceLine Z0={Z1} RS={RS} Vcc={Vcc} term=1
SYMATTR InstName X17
SYMBOL bus_line -2000 1344 R0
WINDOW 39 5 66 Bottom 2
SYMATTR SpiceLine Z0={Z0} L={3}
SYMATTR InstName X18
SYMBOL bus_tap -2464 1344 R0
WINDOW 39 37 89 Bottom 2
SYMATTR SpiceLine Z0={Z0} RS={RS} Vcc={Vcc} term=1
SYMATTR InstName X19
SYMBOL voltage -2752 1392 R0
WINDOW 123 0 0 Left 0
WINDOW 39 0 0 Left 0
SYMATTR InstName V8
SYMATTR Value PULSE(5 0 1u 10n 10n .5u 1u 2)
SYMBOL bus_line -2192 1648 R0
WINDOW 39 5 66 Bottom 2
SYMATTR SpiceLine Z0={Z0} L={3}
SYMATTR InstName X20
SYMBOL voltage -1504 1616 R0
SYMATTR InstName V9
SYMATTR Value PULSE(5 0 4u 10n 10n .5u 1u 2)
SYMBOL bus_tap -1776 1648 R180
WINDOW 39 37 89 Bottom 2
SYMATTR SpiceLine Z0={Z1} RS={RS} Vcc={Vcc} term=1
SYMATTR InstName X21
SYMBOL Digital\\dflop -352 1248 R0
WINDOW 3 -99 201 Left 2
SYMATTR InstName A1
SYMATTR Value td={td} Vhigh={Vcc}
SYMBOL Digital\\and -656 1264 R0
WINDOW 3 -135 155 Left 2
SYMATTR InstName A3
SYMATTR Value td={td} Vhigh={Vcc}
SYMBOL Digital\\or 112 1152 R0
WINDOW 3 -137 -18 Left 2
SYMATTR InstName A6
SYMATTR Value td={td} Vhigh={Vcc}
SYMBOL Digital\\or 112 1328 R0
WINDOW 3 -111 157 Left 2
SYMATTR InstName A7
SYMATTR Value td={td} Vhigh={Vcc}
TEXT -2000 792 Left 2 !.param Z0=100 RS=5k Vcc=5 Z1=100 term=0 Rbase=3.3k Rcol=470 td=10n
TEXT -1488 952 Left 2 !.tran 7u
